/*--------------------------------*- C++ -*----------------------------------*\
| =========                 |                                                 |
| \\      /  F ield         | OpenFOAM: The Open Source CFD Toolbox           |
|  \\      /   O peration    | Version:  2306                                  |
|   \\  /    A nd            | Website:  www.openfoam.com                      |
|    \\/     Manipulation     |                                                 |
\*---------------------------------------------------------------------------*/

FoamFile
{
    version     2.0;
    format      ascii;
    class       dictionary;
    object      thermophysicalProperties;
}

thermoType
{
    type            heRhoThermo;
    mixture         pureMixture;
    transport       const;
    thermo          hConst;
    equationOfState perfectGas;
    specie          specie;
    energy          sensibleEnthalpy;
}

mixture
{
    specie
    {
        nMoles    1;
        molWeight 28.97;    // kg/kmol for air
    }

    thermodynamics
    {
        Cp 1005;           // J/(kg·K) for air
        Hf 0;
    }

    transport
    {
        mu      1.8e-05;   // dynamic viscosity (kg/(m·s))
        Pr      0.7;       // dimensionless
    }
}
